Version 4
SHEET 1 2560 836
WIRE -416 -416 -480 -416
WIRE 336 -416 176 -416
WIRE -480 -320 -480 -336
WIRE 176 -320 176 -416
WIRE 208 -320 176 -320
WIRE -416 -304 -416 -416
WIRE 336 -304 336 -416
WIRE 336 -304 272 -304
WIRE 416 -304 336 -304
WIRE -464 -288 -592 -288
WIRE -448 -288 -464 -288
WIRE 208 -288 128 -288
WIRE 1168 -288 1056 -288
WIRE 1168 -272 1168 -288
WIRE -496 -240 -560 -240
WIRE -464 -240 -496 -240
WIRE -560 -224 -560 -240
WIRE -416 -144 -416 -224
WIRE -560 -112 -560 -144
WIRE -272 0 -272 -16
WIRE -192 0 -272 0
WIRE -272 16 -272 0
WIRE 672 32 640 32
WIRE -192 96 -192 0
WIRE -176 96 -192 96
WIRE 448 96 48 96
WIRE -272 128 -272 96
WIRE 1632 144 1520 144
WIRE -176 176 -304 176
WIRE 224 176 48 176
WIRE 352 176 224 176
WIRE 368 176 368 160
WIRE 1664 224 1632 224
WIRE 1792 224 1744 224
WIRE 544 240 544 208
WIRE -176 256 -256 256
WIRE 224 256 48 256
WIRE -256 304 -256 256
WIRE 224 304 224 256
WIRE 1632 320 1632 224
WIRE 1664 320 1632 320
WIRE 1792 336 1792 224
WIRE 1792 336 1728 336
WIRE 2000 336 1792 336
WIRE 2016 336 2000 336
WIRE 672 352 672 32
WIRE 800 352 672 352
WIRE 960 352 800 352
WIRE 1168 352 1040 352
WIRE 1440 352 1168 352
WIRE 1664 352 1440 352
WIRE 1168 368 1168 352
WIRE -256 400 -256 384
WIRE 224 416 224 384
WIRE 304 528 176 528
WIRE -432 576 -480 576
WIRE -432 592 -432 576
WIRE 176 592 176 528
WIRE 176 592 144 592
WIRE 176 608 176 592
WIRE -480 624 -480 576
WIRE -608 640 -608 592
WIRE -304 640 -304 592
WIRE -208 640 -208 592
WIRE 144 688 144 672
WIRE -480 752 -480 704
WIRE -304 768 -304 720
WIRE -208 768 -208 720
WIRE -608 800 -608 720
WIRE -608 816 -608 800
FLAG -480 -320 0
FLAG -560 -112 0
FLAG -592 -288 0
FLAG 1168 432 0
FLAG -608 800 0
FLAG -432 592 0
FLAG -608 592 5+
IOPIN -608 592 Out
FLAG -480 752 5-
IOPIN -480 752 Out
FLAG 1696 304 5+
IOPIN 1696 304 In
FLAG 1696 368 5-
IOPIN 1696 368 In
FLAG -416 -144 Switch_out
FLAG 2000 336 out
FLAG 144 688 0
FLAG 1440 352 RC_OUT
FLAG 240 -336 5+
IOPIN 240 -336 In
FLAG 240 -272 5-
IOPIN 240 -272 In
FLAG 800 352 RC_IN
FLAG -496 -240 SWITCH_IN
FLAG 352 176 5+
IOPIN 352 176 In
FLAG 224 416 0
FLAG -304 176 0
FLAG -256 400 0
FLAG -304 768 0
FLAG -304 592 Ux
IOPIN -304 592 Out
FLAG -208 768 0
FLAG -208 592 Uy
IOPIN -208 592 Out
FLAG 448 32 Uy
IOPIN 448 32 In
FLAG -272 128 0
FLAG -272 -96 Ux
IOPIN -272 -96 In
FLAG 544 -32 5+
IOPIN 544 -32 In
FLAG 544 240 0
FLAG 1520 144 0
FLAG 1168 -272 0
SYMBOL voltage -480 -432 R0
WINDOW 123 0 0 Left 0
WINDOW 39 0 0 Left 0
SYMATTR InstName V1
SYMATTR Value 5
SYMBOL voltage -560 -240 R0
WINDOW 3 -434 53 Left 2
WINDOW 123 0 0 Left 0
WINDOW 39 0 0 Left 0
SYMATTR Value 1
SYMATTR InstName V2
SYMBOL sw -416 -320 R0
SYMATTR InstName S1
SYMATTR Value MYSW
SYMBOL cap 1152 368 R0
SYMATTR InstName C1
SYMATTR Value 1µ
SYMBOL voltage -608 624 R0
WINDOW 123 0 0 Left 0
WINDOW 39 0 0 Left 0
SYMATTR InstName V3
SYMATTR Value 4.2
SYMBOL voltage 144 576 R0
WINDOW 123 0 0 Left 0
WINDOW 39 0 0 Left 0
SYMATTR InstName V5
SYMATTR Value 1
SYMBOL res 400 512 R90
WINDOW 0 0 56 VBottom 2
WINDOW 3 32 56 VTop 2
SYMATTR InstName R2
SYMATTR Value 5.5
SYMBOL res 1056 336 R90
WINDOW 0 0 56 VBottom 2
WINDOW 3 32 56 VTop 2
SYMATTR InstName R3
SYMATTR Value 100
SYMBOL OpAmps\\UniversalOpamp 1696 336 R0
SYMATTR InstName U2
SYMBOL OpAmps\\UniversalOpamp 240 -304 R0
SYMATTR InstName U1
SYMBOL voltage -480 608 R0
WINDOW 123 0 0 Left 0
WINDOW 39 0 0 Left 0
SYMATTR InstName V4
SYMATTR Value 5
SYMBOL SpecialFunctions\\LTC6992-2 -64 176 R0
SYMATTR InstName U3
SYMBOL res 208 160 R0
SYMATTR InstName R1
SYMATTR Value 976k
SYMBOL res 208 288 R0
SYMATTR InstName R4
SYMATTR Value 182k
SYMBOL res -272 288 R0
SYMATTR InstName R5
SYMATTR Value 160k
SYMBOL voltage -304 624 R0
WINDOW 3 24 44 Left 2
WINDOW 123 0 0 Left 0
WINDOW 39 0 0 Left 0
SYMATTR Value 2
SYMATTR InstName V6
SYMBOL voltage -208 624 R0
WINDOW 3 24 44 Left 2
WINDOW 123 0 0 Left 0
WINDOW 39 0 0 Left 0
SYMATTR Value 2
SYMATTR InstName V7
SYMBOL res -288 -112 R0
SYMATTR InstName R6
SYMATTR Value 10k
SYMBOL res -288 0 R0
SYMATTR InstName R7
SYMATTR Value 10k
SYMBOL Switches\\ADG701 544 80 R0
SYMATTR InstName U5
SYMBOL res 1760 208 R90
WINDOW 0 0 56 VBottom 2
WINDOW 3 32 56 VTop 2
SYMATTR InstName R8
SYMATTR Value 10k
SYMBOL res 1648 240 R180
WINDOW 0 36 76 Left 2
WINDOW 3 36 40 Left 2
SYMATTR InstName R9
SYMATTR Value 20k
SYMBOL res 1072 -304 R90
WINDOW 0 0 56 VBottom 2
WINDOW 3 32 56 VTop 2
SYMATTR InstName R10
SYMATTR Value 1
TEXT 752 -160 Left 2 !.tran 20m
TEXT -1256 -88 Left 2 !.model MYSW SW(Ron=5.5 Roff=1Meg Vt=.5 Vh=-.4)
