Version 4
SHEET 1 2532 964
WIRE 128 -64 -64 -64
WIRE -64 -32 -64 -64
WIRE -16 -32 -64 -32
WIRE 128 -16 128 -64
WIRE 128 -16 48 -16
WIRE 160 -16 128 -16
WIRE -16 0 -64 0
WIRE 1296 16 912 16
WIRE 160 32 160 -16
WIRE 1360 112 1232 112
WIRE 1376 112 1360 112
WIRE 160 144 160 112
WIRE 160 144 80 144
WIRE 288 144 160 144
WIRE 384 144 288 144
WIRE 912 144 912 16
WIRE 912 144 608 144
WIRE 1360 144 1360 112
WIRE 1392 144 1360 144
WIRE 1584 144 1568 144
WIRE 1680 144 1584 144
WIRE 160 160 160 144
WIRE 1152 176 960 176
WIRE 960 208 960 176
WIRE 1008 208 960 208
WIRE 1152 208 1152 176
WIRE 1232 208 1232 112
WIRE 1232 208 1152 208
WIRE 1392 208 1360 208
WIRE 384 224 224 224
WIRE 400 224 384 224
WIRE 720 224 608 224
WIRE 768 224 720 224
WIRE 1152 224 1152 208
WIRE 1152 224 1072 224
WIRE 1680 224 1680 144
WIRE 1008 240 960 240
WIRE 1296 240 1296 16
WIRE 1360 240 1360 208
WIRE 1360 240 1296 240
WIRE 1376 240 1360 240
WIRE 224 256 224 224
WIRE 1232 256 1232 208
WIRE 1680 288 1680 224
WIRE 384 304 352 304
WIRE 720 304 608 304
WIRE 160 320 160 240
WIRE 1232 320 1232 256
WIRE 1232 320 1168 320
WIRE 352 336 352 304
WIRE 720 368 720 304
WIRE 1568 368 1488 368
WIRE 1680 368 1568 368
WIRE 1568 384 1568 368
WIRE 1680 400 1680 368
WIRE 1744 400 1712 400
WIRE 160 432 160 384
WIRE 1680 448 1680 400
WIRE 1712 448 1712 400
WIRE 1168 480 1168 400
WIRE 1232 544 1232 320
WIRE 1584 544 1408 544
WIRE 2016 544 1984 544
WIRE 2176 544 2096 544
WIRE 1696 592 1696 512
WIRE 1744 592 1744 400
WIRE 1744 592 1696 592
WIRE 1408 640 1408 544
WIRE 1456 640 1408 640
WIRE 1584 656 1584 544
WIRE 1584 656 1520 656
WIRE 1632 656 1584 656
WIRE 1872 656 1632 656
WIRE 1984 656 1984 544
WIRE 1984 656 1952 656
WIRE 2016 656 1984 656
WIRE 80 672 0 672
WIRE 192 672 80 672
WIRE 272 672 192 672
WIRE 544 672 464 672
WIRE 640 672 544 672
WIRE 1232 672 1232 624
WIRE 1456 672 1232 672
WIRE 2176 672 2176 544
WIRE 2176 672 2080 672
WIRE 2416 672 2176 672
WIRE 1232 688 1232 672
WIRE 1696 688 1696 592
WIRE 1696 688 1680 688
WIRE 1744 688 1696 688
WIRE 1792 688 1744 688
WIRE 1936 688 1872 688
WIRE 2016 688 1936 688
WIRE 544 768 544 736
WIRE 192 784 192 672
WIRE 272 784 192 784
WIRE 1936 784 1936 688
WIRE 0 800 0 752
WIRE 80 800 80 736
WIRE 1232 816 1232 768
WIRE 368 880 368 832
WIRE 1232 928 1232 880
FLAG -64 0 Ux
IOPIN -64 0 In
FLAG 224 256 0
FLAG 352 416 0
FLAG 720 448 0
FLAG 960 240 Uy
IOPIN 960 240 In
FLAG 1568 448 0
FLAG 1936 864 0
FLAG 2416 672 Uout
IOPIN 2416 672 Out
FLAG 368 880 0
FLAG 80 800 0
FLAG 0 800 0
FLAG 544 768 0
FLAG 640 672 +4.2V
IOPIN 640 672 Out
FLAG 1488 688 0
FLAG 1040 256 0
FLAG 16 16 0
FLAG 2048 704 0
FLAG 1488 624 +4.2V
IOPIN 1488 624 In
FLAG 2048 640 +4.2V
IOPIN 2048 640 In
FLAG 1040 192 +4.2V
IOPIN 1040 192 In
FLAG 16 -48 +4.2V
IOPIN 16 -48 In
FLAG 0 144 +4.2V
IOPIN 0 144 In
FLAG 768 224 +4.2V
IOPIN 768 224 In
FLAG 1664 480 0
FLAG 1728 480 +4.2V
IOPIN 1728 480 In
FLAG 1168 480 +4.2V
IOPIN 1168 480 In
FLAG 288 144 GEN_IN
IOPIN 288 144 Out
FLAG 912 144 SW_IN
IOPIN 912 144 Out
FLAG 1680 224 SW_OUT
IOPIN 1680 224 Out
FLAG 1680 400 FILTR_OUT
IOPIN 1680 400 Out
FLAG 1232 256 Uy
IOPIN 1232 256 Out
FLAG 1632 656 Uy_OPAMP_IN
IOPIN 1632 656 Out
FLAG 1488 80 +4.2V
IOPIN 1488 80 In
FLAG 1488 320 0
FLAG 96 496 0
FLAG -32 496 0
FLAG -32 416 Ux
IOPIN -32 416 In
FLAG 96 416 Uy
IOPIN 96 416 In
FLAG 1744 688 Ux_OPAMP_IN
IOPIN 1744 688 Out
FLAG 160 432 0
FLAG 1232 928 0
FLAG 1488 448 0
SYMBOL res 144 16 R0
SYMATTR InstName R1
SYMATTR Value 6.8k
SYMBOL res 144 144 R0
SYMATTR InstName R2
SYMATTR Value 2.7k
SYMBOL res 96 128 R90
WINDOW 0 0 56 VBottom 2
WINDOW 3 32 56 VTop 2
SYMATTR InstName R3
SYMATTR Value 39k
SYMBOL SpecialFunctions\\LTC6992-2 496 224 R0
SYMATTR InstName U1
SYMBOL res 336 320 R0
SYMATTR InstName R4
SYMATTR Value 150k
SYMBOL res 704 208 R0
SYMATTR InstName R5
SYMATTR Value 180k
SYMBOL res 704 352 R0
SYMATTR InstName R6
SYMATTR Value 820k
SYMBOL res 1216 528 R0
SYMATTR InstName R7
SYMATTR Value 3.9k
SYMBOL res 1216 672 R0
SYMATTR InstName R8
SYMATTR Value 820
SYMBOL OpAmps\\UniversalOpamp 1488 656 R0
SYMATTR InstName U3
SYMBOL OpAmps\\UniversalOpamp 2048 672 R0
SYMATTR InstName U4
SYMBOL OpAmps\\UniversalOpamp 1040 224 R0
SYMATTR InstName U5
SYMBOL res 1664 272 R0
SYMATTR InstName R9
SYMATTR Value 1000
SYMBOL cap 1552 384 R0
SYMATTR InstName C1
SYMATTR Value 1µ
SYMBOL res 1888 672 R90
WINDOW 0 0 56 VBottom 2
WINDOW 3 32 56 VTop 2
SYMATTR InstName R10
SYMATTR Value 1k
SYMBOL res 1920 768 R0
SYMATTR InstName R11
SYMATTR Value 3.3k
SYMBOL OpAmps\\UniversalOpamp 16 -16 R0
SYMATTR InstName U6
SYMBOL res 1968 640 R90
WINDOW 0 0 56 VBottom 2
WINDOW 3 32 56 VTop 2
SYMATTR InstName R12
SYMATTR Value 1k
SYMBOL res 2112 528 R90
WINDOW 0 0 56 VBottom 2
WINDOW 3 32 56 VTop 2
SYMATTR InstName R13
SYMATTR Value 3.3k
SYMBOL PowerProducts\\ADP162-4.2 368 784 R0
SYMATTR InstName U7
SYMBOL voltage 0 656 R0
WINDOW 123 0 0 Left 0
WINDOW 39 0 0 Left 0
SYMATTR InstName V1
SYMATTR Value 4.5
SYMBOL cap 64 672 R0
SYMATTR InstName C2
SYMATTR Value 1µ
SYMBOL cap 528 672 R0
SYMATTR InstName C3
SYMATTR Value 1µ
SYMBOL OpAmps\\UniversalOpamp 1696 480 R90
SYMATTR InstName U8
SYMBOL voltage -32 400 R0
WINDOW 123 0 0 Left 0
WINDOW 39 0 0 Left 0
SYMATTR InstName V2
SYMATTR Value 0
SYMBOL voltage 96 400 R0
WINDOW 123 0 0 Left 0
WINDOW 39 0 0 Left 0
SYMATTR InstName V3
SYMATTR Value 1
SYMBOL res2 1216 816 R0
SYMATTR InstName R14
SYMATTR Value 0
SYMBOL res2 144 320 R0
SYMATTR InstName R15
SYMATTR Value 0
SYMBOL Switches\\ADG702 1488 192 R0
SYMATTR InstName U2
SYMBOL res 1472 352 R0
SYMATTR InstName R16
SYMATTR Value 1000
TEXT -152 904 Left 2 !.tran 5m
